<?xml version="1.0" encoding="UTF-8"?>

<!-- generated on Sun Sep 15 15:47:07 2019 by Eclipse SUMO netgenerate Version v1_2_0+0941-71d17e85d7
<configuration xmlns:xsi="http://www.w3.org/2001/XMLSchema-instance" xsi:noNamespaceSchemaLocation="http://sumo.dlr.de/xsd/netgenerateConfiguration.xsd">

    <grid_network>
        <grid value="true"/>
        <grid.number value="8"/>
        <grid.length value="142.86"/>
    </grid_network>

    <output>
        <output-file value="./data/manhattan500_1/net.net.xml"/>
    </output>

    <junctions>
        <no-turnarounds value="true"/>
    </junctions>

</configuration>
-->

<net version="1.3" junctionCornerDetail="5" limitTurnSpeed="5.50" xmlns:xsi="http://www.w3.org/2001/XMLSchema-instance" xsi:noNamespaceSchemaLocation="http://sumo.dlr.de/xsd/net_file.xsd">

    <location netOffset="0.00,0.00" convBoundary="0.00,0.00,1000.02,1000.02" origBoundary="0.00,0.00,1000.02,1000.02" projParameter="!"/>

    <edge id=":A0_0" function="internal">
        <lane id=":A0_0_0" index="0" speed="6.08" length="7.74" shape="-1.60,3.20 -1.30,1.10 -0.40,-0.40 1.10,-1.30 3.20,-1.60"/>
    </edge>
    <edge id=":A0_1" function="internal">
        <lane id=":A0_1_0" index="0" speed="3.90" length="2.58" shape="3.20,1.60 2.50,1.70 2.00,2.00 1.70,2.50 1.60,3.20"/>
    </edge>
    <edge id=":A1_0" function="internal">
        <lane id=":A1_0_0" index="0" speed="13.89" length="14.40" shape="-1.60,150.06 -1.60,135.66"/>
    </edge>
    <edge id=":A1_1" function="internal">
        <lane id=":A1_1_0" index="0" speed="8.00" length="5.93" shape="-1.60,150.06 -1.05,146.21 0.00,144.46"/>
    </edge>
    <edge id=":A1_6" function="internal">
        <lane id=":A1_6_0" index="0" speed="8.00" length="8.26" shape="0.00,144.46 0.60,143.46 3.35,141.81 7.20,141.26"/>
    </edge>
    <edge id=":A1_2" function="internal">
        <lane id=":A1_2_0" index="0" speed="6.51" length="9.03" shape="7.20,144.46 4.75,144.81 3.00,145.86 1.95,147.61 1.60,150.06"/>
    </edge>
    <edge id=":A1_3" function="internal">
        <lane id=":A1_3_0" index="0" speed="8.00" length="14.19" shape="7.20,144.46 3.35,143.91 0.60,142.26 -1.05,139.51 -1.60,135.66"/>
    </edge>
    <edge id=":A1_4" function="internal">
        <lane id=":A1_4_0" index="0" speed="6.51" length="9.03" shape="1.60,135.66 1.95,138.11 3.00,139.86 4.75,140.91 7.20,141.26"/>
    </edge>
    <edge id=":A1_5" function="internal">
        <lane id=":A1_5_0" index="0" speed="13.89" length="14.40" shape="1.60,135.66 1.60,150.06"/>
    </edge>
    <edge id=":A2_0" function="internal">
        <lane id=":A2_0_0" index="0" speed="13.89" length="14.40" shape="-1.60,292.92 -1.60,278.52"/>
    </edge>
    <edge id=":A2_1" function="internal">
        <lane id=":A2_1_0" index="0" speed="8.00" length="5.93" shape="-1.60,292.92 -1.05,289.07 0.00,287.32"/>
    </edge>
    <edge id=":A2_6" function="internal">
        <lane id=":A2_6_0" index="0" speed="8.00" length="8.26" shape="0.00,287.32 0.60,286.32 3.35,284.67 7.20,284.12"/>
    </edge>
    <edge id=":A2_2" function="internal">
        <lane id=":A2_2_0" index="0" speed="6.51" length="9.03" shape="7.20,287.32 4.75,287.67 3.00,288.72 1.95,290.47 1.60,292.92"/>
    </edge>
    <edge id=":A2_3" function="internal">
        <lane id=":A2_3_0" index="0" speed="8.00" length="14.19" shape="7.20,287.32 3.35,286.77 0.60,285.12 -1.05,282.37 -1.60,278.52"/>
    </edge>
    <edge id=":A2_4" function="internal">
        <lane id=":A2_4_0" index="0" speed="6.51" length="9.03" shape="1.60,278.52 1.95,280.97 3.00,282.72 4.75,283.77 7.20,284.12"/>
    </edge>
    <edge id=":A2_5" function="internal">
        <lane id=":A2_5_0" index="0" speed="13.89" length="14.40" shape="1.60,278.52 1.60,292.92"/>
    </edge>
    <edge id=":A3_0" function="internal">
        <lane id=":A3_0_0" index="0" speed="13.89" length="14.40" shape="-1.60,435.78 -1.60,421.38"/>
    </edge>
    <edge id=":A3_1" function="internal">
        <lane id=":A3_1_0" index="0" speed="8.00" length="5.93" shape="-1.60,435.78 -1.05,431.93 0.00,430.18"/>
    </edge>
    <edge id=":A3_6" function="internal">
        <lane id=":A3_6_0" index="0" speed="8.00" length="8.26" shape="0.00,430.18 0.60,429.18 3.35,427.53 7.20,426.98"/>
    </edge>
    <edge id=":A3_2" function="internal">
        <lane id=":A3_2_0" index="0" speed="6.51" length="9.03" shape="7.20,430.18 4.75,430.53 3.00,431.58 1.95,433.33 1.60,435.78"/>
    </edge>
    <edge id=":A3_3" function="internal">
        <lane id=":A3_3_0" index="0" speed="8.00" length="14.19" shape="7.20,430.18 3.35,429.63 0.60,427.98 -1.05,425.23 -1.60,421.38"/>
    </edge>
    <edge id=":A3_4" function="internal">
        <lane id=":A3_4_0" index="0" speed="6.51" length="9.03" shape="1.60,421.38 1.95,423.83 3.00,425.58 4.75,426.63 7.20,426.98"/>
    </edge>
    <edge id=":A3_5" function="internal">
        <lane id=":A3_5_0" index="0" speed="13.89" length="14.40" shape="1.60,421.38 1.60,435.78"/>
    </edge>
    <edge id=":A4_0" function="internal">
        <lane id=":A4_0_0" index="0" speed="13.89" length="14.40" shape="-1.60,578.64 -1.60,564.24"/>
    </edge>
    <edge id=":A4_1" function="internal">
        <lane id=":A4_1_0" index="0" speed="8.00" length="5.93" shape="-1.60,578.64 -1.05,574.79 0.00,573.04"/>
    </edge>
    <edge id=":A4_6" function="internal">
        <lane id=":A4_6_0" index="0" speed="8.00" length="8.26" shape="0.00,573.04 0.60,572.04 3.35,570.39 7.20,569.84"/>
    </edge>
    <edge id=":A4_2" function="internal">
        <lane id=":A4_2_0" index="0" speed="6.51" length="9.03" shape="7.20,573.04 4.75,573.39 3.00,574.44 1.95,576.19 1.60,578.64"/>
    </edge>
    <edge id=":A4_3" function="internal">
        <lane id=":A4_3_0" index="0" speed="8.00" length="14.19" shape="7.20,573.04 3.35,572.49 0.60,570.84 -1.05,568.09 -1.60,564.24"/>
    </edge>
    <edge id=":A4_4" function="internal">
        <lane id=":A4_4_0" index="0" speed="6.51" length="9.03" shape="1.60,564.24 1.95,566.69 3.00,568.44 4.75,569.49 7.20,569.84"/>
    </edge>
    <edge id=":A4_5" function="internal">
        <lane id=":A4_5_0" index="0" speed="13.89" length="14.40" shape="1.60,564.24 1.60,578.64"/>
    </edge>
    <edge id=":A5_0" function="internal">
        <lane id=":A5_0_0" index="0" speed="13.89" length="14.40" shape="-1.60,721.50 -1.60,707.10"/>
    </edge>
    <edge id=":A5_1" function="internal">
        <lane id=":A5_1_0" index="0" speed="8.00" length="5.93" shape="-1.60,721.50 -1.05,717.65 0.00,715.90"/>
    </edge>
    <edge id=":A5_6" function="internal">
        <lane id=":A5_6_0" index="0" speed="8.00" length="8.26" shape="0.00,715.90 0.60,714.90 3.35,713.25 7.20,712.70"/>
    </edge>
    <edge id=":A5_2" function="internal">
        <lane id=":A5_2_0" index="0" speed="6.51" length="9.03" shape="7.20,715.90 4.75,716.25 3.00,717.30 1.95,719.05 1.60,721.50"/>
    </edge>
    <edge id=":A5_3" function="internal">
        <lane id=":A5_3_0" index="0" speed="8.00" length="14.19" shape="7.20,715.90 3.35,715.35 0.60,713.70 -1.05,710.95 -1.60,707.10"/>
    </edge>
    <edge id=":A5_4" function="internal">
        <lane id=":A5_4_0" index="0" speed="6.51" length="9.03" shape="1.60,707.10 1.95,709.55 3.00,711.30 4.75,712.35 7.20,712.70"/>
    </edge>
    <edge id=":A5_5" function="internal">
        <lane id=":A5_5_0" index="0" speed="13.89" length="14.40" shape="1.60,707.10 1.60,721.50"/>
    </edge>
    <edge id=":A6_0" function="internal">
        <lane id=":A6_0_0" index="0" speed="13.89" length="14.40" shape="-1.60,864.36 -1.60,849.96"/>
    </edge>
    <edge id=":A6_1" function="internal">
        <lane id=":A6_1_0" index="0" speed="8.00" length="5.93" shape="-1.60,864.36 -1.05,860.51 0.00,858.76"/>
    </edge>
    <edge id=":A6_6" function="internal">
        <lane id=":A6_6_0" index="0" speed="8.00" length="8.26" shape="0.00,858.76 0.60,857.76 3.35,856.11 7.20,855.56"/>
    </edge>
    <edge id=":A6_2" function="internal">
        <lane id=":A6_2_0" index="0" speed="6.51" length="9.03" shape="7.20,858.76 4.75,859.11 3.00,860.16 1.95,861.91 1.60,864.36"/>
    </edge>
    <edge id=":A6_3" function="internal">
        <lane id=":A6_3_0" index="0" speed="8.00" length="14.19" shape="7.20,858.76 3.35,858.21 0.60,856.56 -1.05,853.81 -1.60,849.96"/>
    </edge>
    <edge id=":A6_4" function="internal">
        <lane id=":A6_4_0" index="0" speed="6.51" length="9.03" shape="1.60,849.96 1.95,852.41 3.00,854.16 4.75,855.21 7.20,855.56"/>
    </edge>
    <edge id=":A6_5" function="internal">
        <lane id=":A6_5_0" index="0" speed="13.89" length="14.40" shape="1.60,849.96 1.60,864.36"/>
    </edge>
    <edge id=":A7_0" function="internal">
        <lane id=":A7_0_0" index="0" speed="6.08" length="7.74" shape="3.20,1001.62 1.10,1001.32 -0.40,1000.42 -1.30,998.92 -1.60,996.82"/>
    </edge>
    <edge id=":A7_1" function="internal">
        <lane id=":A7_1_0" index="0" speed="3.90" length="2.58" shape="1.60,996.82 1.70,997.52 2.00,998.02 2.50,998.32 3.20,998.42"/>
    </edge>
    <edge id=":B0_0" function="internal">
        <lane id=":B0_0_0" index="0" speed="6.51" length="9.03" shape="141.26,7.20 140.91,4.75 139.86,3.00 138.11,1.95 135.66,1.60"/>
    </edge>
    <edge id=":B0_1" function="internal">
        <lane id=":B0_1_0" index="0" speed="8.00" length="14.19" shape="141.26,7.20 141.81,3.35 143.46,0.60 146.21,-1.05 150.06,-1.60"/>
    </edge>
    <edge id=":B0_2" function="internal">
        <lane id=":B0_2_0" index="0" speed="6.51" length="9.03" shape="150.06,1.60 147.61,1.95 145.86,3.00 144.81,4.75 144.46,7.20"/>
    </edge>
    <edge id=":B0_3" function="internal">
        <lane id=":B0_3_0" index="0" speed="13.89" length="14.40" shape="150.06,1.60 135.66,1.60"/>
    </edge>
    <edge id=":B0_4" function="internal">
        <lane id=":B0_4_0" index="0" speed="13.89" length="14.40" shape="135.66,-1.60 150.06,-1.60"/>
    </edge>
    <edge id=":B0_5" function="internal">
        <lane id=":B0_5_0" index="0" speed="8.00" length="5.93" shape="135.66,-1.60 139.51,-1.05 141.26,0.00"/>
    </edge>
    <edge id=":B0_6" function="internal">
        <lane id=":B0_6_0" index="0" speed="8.00" length="8.26" shape="141.26,0.00 142.26,0.60 143.91,3.35 144.46,7.20"/>
    </edge>
    <edge id=":B1_0" function="internal">
        <lane id=":B1_0_0" index="0" speed="6.51" length="9.03" shape="141.26,150.06 140.91,147.61 139.86,145.86 138.11,144.81 135.66,144.46"/>
    </edge>
    <edge id=":B1_1" function="internal">
        <lane id=":B1_1_0" index="0" speed="13.89" length="14.40" shape="141.26,150.06 141.26,135.66"/>
    </edge>
    <edge id=":B1_2" function="internal">
        <lane id=":B1_2_0" index="0" speed="8.00" length="5.93" shape="141.26,150.06 141.81,146.21 142.86,144.46"/>
    </edge>
    <edge id=":B1_12" function="internal">
        <lane id=":B1_12_0" index="0" speed="8.00" length="8.26" shape="142.86,144.46 143.46,143.46 146.21,141.81 150.06,141.26"/>
    </edge>
    <edge id=":B1_3" function="internal">
        <lane id=":B1_3_0" index="0" speed="6.51" length="9.03" shape="150.06,144.46 147.61,144.81 145.86,145.86 144.81,147.61 144.46,150.06"/>
    </edge>
    <edge id=":B1_4" function="internal">
        <lane id=":B1_4_0" index="0" speed="13.89" length="14.40" shape="150.06,144.46 135.66,144.46"/>
    </edge>
    <edge id=":B1_5" function="internal">
        <lane id=":B1_5_0" index="0" speed="8.00" length="14.19" shape="150.06,144.46 146.21,143.91 143.46,142.26 141.81,139.51 141.26,135.66"/>
    </edge>
    <edge id=":B1_6" function="internal">
        <lane id=":B1_6_0" index="0" speed="6.51" length="9.03" shape="144.46,135.66 144.81,138.11 145.86,139.86 147.61,140.91 150.06,141.26"/>
    </edge>
    <edge id=":B1_7" function="internal">
        <lane id=":B1_7_0" index="0" speed="13.89" length="14.40" shape="144.46,135.66 144.46,150.06"/>
    </edge>
    <edge id=":B1_8" function="internal">
        <lane id=":B1_8_0" index="0" speed="8.00" length="5.93" shape="144.46,135.66 143.91,139.51 142.86,141.26"/>
    </edge>
    <edge id=":B1_13" function="internal">
        <lane id=":B1_13_0" index="0" speed="8.00" length="8.26" shape="142.86,141.26 142.26,142.26 139.51,143.91 135.66,144.46"/>
    </edge>
    <edge id=":B1_9" function="internal">
        <lane id=":B1_9_0" index="0" speed="6.51" length="9.03" shape="135.66,141.26 138.11,140.91 139.86,139.86 140.91,138.11 141.26,135.66"/>
    </edge>
    <edge id=":B1_10" function="internal">
        <lane id=":B1_10_0" index="0" speed="13.89" length="14.40" shape="135.66,141.26 150.06,141.26"/>
    </edge>
    <edge id=":B1_11" function="internal">
        <lane id=":B1_11_0" index="0" speed="8.00" length="14.19" shape="135.66,141.26 139.51,141.81 142.26,143.46 143.91,146.21 144.46,150.06"/>
    </edge>
    <edge id=":B2_0" function="internal">
        <lane id=":B2_0_0" index="0" speed="6.51" length="9.03" shape="141.26,292.92 140.91,290.47 139.86,288.72 138.11,287.67 135.66,287.32"/>
    </edge>
    <edge id=":B2_1" function="internal">
        <lane id=":B2_1_0" index="0" speed="13.89" length="14.40" shape="141.26,292.92 141.26,278.52"/>
    </edge>
    <edge id=":B2_2" function="internal">
        <lane id=":B2_2_0" index="0" speed="8.00" length="5.93" shape="141.26,292.92 141.81,289.07 142.86,287.32"/>
    </edge>
    <edge id=":B2_12" function="internal">
        <lane id=":B2_12_0" index="0" speed="8.00" length="8.26" shape="142.86,287.32 143.46,286.32 146.21,284.67 150.06,284.12"/>
    </edge>
    <edge id=":B2_3" function="internal">
        <lane id=":B2_3_0" index="0" speed="6.51" length="9.03" shape="150.06,287.32 147.61,287.67 145.86,288.72 144.81,290.47 144.46,292.92"/>
    </edge>
    <edge id=":B2_4" function="internal">
        <lane id=":B2_4_0" index="0" speed="13.89" length="14.40" shape="150.06,287.32 135.66,287.32"/>
    </edge>
    <edge id=":B2_5" function="internal">
        <lane id=":B2_5_0" index="0" speed="8.00" length="14.19" shape="150.06,287.32 146.21,286.77 143.46,285.12 141.81,282.37 141.26,278.52"/>
    </edge>
    <edge id=":B2_6" function="internal">
        <lane id=":B2_6_0" index="0" speed="6.51" length="9.03" shape="144.46,278.52 144.81,280.97 145.86,282.72 147.61,283.77 150.06,284.12"/>
    </edge>
    <edge id=":B2_7" function="internal">
        <lane id=":B2_7_0" index="0" speed="13.89" length="14.40" shape="144.46,278.52 144.46,292.92"/>
    </edge>
    <edge id=":B2_8" function="internal">
        <lane id=":B2_8_0" index="0" speed="8.00" length="5.93" shape="144.46,278.52 143.91,282.37 142.86,284.12"/>
    </edge>
    <edge id=":B2_13" function="internal">
        <lane id=":B2_13_0" index="0" speed="8.00" length="8.26" shape="142.86,284.12 142.26,285.12 139.51,286.77 135.66,287.32"/>
    </edge>
    <edge id=":B2_9" function="internal">
        <lane id=":B2_9_0" index="0" speed="6.51" length="9.03" shape="135.66,284.12 138.11,283.77 139.86,282.72 140.91,280.97 141.26,278.52"/>
    </edge>
    <edge id=":B2_10" function="internal">
        <lane id=":B2_10_0" index="0" speed="13.89" length="14.40" shape="135.66,284.12 150.06,284.12"/>
    </edge>
    <edge id=":B2_11" function="internal">
        <lane id=":B2_11_0" index="0" speed="8.00" length="14.19" shape="135.66,284.12 139.51,284.67 142.26,286.32 143.91,289.07 144.46,292.92"/>
    </edge>
    <edge id=":B3_0" function="internal">
        <lane id=":B3_0_0" index="0" speed="6.51" length="9.03" shape="141.26,435.78 140.91,433.33 139.86,431.58 138.11,430.53 135.66,430.18"/>
    </edge>
    <edge id=":B3_1" function="internal">
        <lane id=":B3_1_0" index="0" speed="13.89" length="14.40" shape="141.26,435.78 141.26,421.38"/>
    </edge>
    <edge id=":B3_2" function="internal">
        <lane id=":B3_2_0" index="0" speed="8.00" length="5.93" shape="141.26,435.78 141.81,431.93 142.86,430.18"/>
    </edge>
    <edge id=":B3_12" function="internal">
        <lane id=":B3_12_0" index="0" speed="8.00" length="8.26" shape="142.86,430.18 143.46,429.18 146.21,427.53 150.06,426.98"/>
    </edge>
    <edge id=":B3_3" function="internal">
        <lane id=":B3_3_0" index="0" speed="6.51" length="9.03" shape="150.06,430.18 147.61,430.53 145.86,431.58 144.81,433.33 144.46,435.78"/>
    </edge>
    <edge id=":B3_4" function="internal">
        <lane id=":B3_4_0" index="0" speed="13.89" length="14.40" shape="150.06,430.18 135.66,430.18"/>
    </edge>
    <edge id=":B3_5" function="internal">
        <lane id=":B3_5_0" index="0" speed="8.00" length="14.19" shape="150.06,430.18 146.21,429.63 143.46,427.98 141.81,425.23 141.26,421.38"/>
    </edge>
    <edge id=":B3_6" function="internal">
        <lane id=":B3_6_0" index="0" speed="6.51" length="9.03" shape="144.46,421.38 144.81,423.83 145.86,425.58 147.61,426.63 150.06,426.98"/>
    </edge>
    <edge id=":B3_7" function="internal">
        <lane id=":B3_7_0" index="0" speed="13.89" length="14.40" shape="144.46,421.38 144.46,435.78"/>
    </edge>
    <edge id=":B3_8" function="internal">
        <lane id=":B3_8_0" index="0" speed="8.00" length="5.93" shape="144.46,421.38 143.91,425.23 142.86,426.98"/>
    </edge>
    <edge id=":B3_13" function="internal">
        <lane id=":B3_13_0" index="0" speed="8.00" length="8.26" shape="142.86,426.98 142.26,427.98 139.51,429.63 135.66,430.18"/>
    </edge>
    <edge id=":B3_9" function="internal">
        <lane id=":B3_9_0" index="0" speed="6.51" length="9.03" shape="135.66,426.98 138.11,426.63 139.86,425.58 140.91,423.83 141.26,421.38"/>
    </edge>
    <edge id=":B3_10" function="internal">
        <lane id=":B3_10_0" index="0" speed="13.89" length="14.40" shape="135.66,426.98 150.06,426.98"/>
    </edge>
    <edge id=":B3_11" function="internal">
        <lane id=":B3_11_0" index="0" speed="8.00" length="14.19" shape="135.66,426.98 139.51,427.53 142.26,429.18 143.91,431.93 144.46,435.78"/>
    </edge>
    <edge id=":B4_0" function="internal">
        <lane id=":B4_0_0" index="0" speed="6.51" length="9.03" shape="141.26,578.64 140.91,576.19 139.86,574.44 138.11,573.39 135.66,573.04"/>
    </edge>
    <edge id=":B4_1" function="internal">
        <lane id=":B4_1_0" index="0" speed="13.89" length="14.40" shape="141.26,578.64 141.26,564.24"/>
    </edge>
    <edge id=":B4_2" function="internal">
        <lane id=":B4_2_0" index="0" speed="8.00" length="5.93" shape="141.26,578.64 141.81,574.79 142.86,573.04"/>
    </edge>
    <edge id=":B4_12" function="internal">
        <lane id=":B4_12_0" index="0" speed="8.00" length="8.26" shape="142.86,573.04 143.46,572.04 146.21,570.39 150.06,569.84"/>
    </edge>
    <edge id=":B4_3" function="internal">
        <lane id=":B4_3_0" index="0" speed="6.51" length="9.03" shape="150.06,573.04 147.61,573.39 145.86,574.44 144.81,576.19 144.46,578.64"/>
    </edge>
    <edge id=":B4_4" function="internal">
        <lane id=":B4_4_0" index="0" speed="13.89" length="14.40" shape="150.06,573.04 135.66,573.04"/>
    </edge>
    <edge id=":B4_5" function="internal">
        <lane id=":B4_5_0" index="0" speed="8.00" length="14.19" shape="150.06,573.04 146.21,572.49 143.46,570.84 141.81,568.09 141.26,564.24"/>
    </edge>
    <edge id=":B4_6" function="internal">
        <lane id=":B4_6_0" index="0" speed="6.51" length="9.03" shape="144.46,564.24 144.81,566.69 145.86,568.44 147.61,569.49 150.06,569.84"/>
    </edge>
    <edge id=":B4_7" function="internal">
        <lane id=":B4_7_0" index="0" speed="13.89" length="14.40" shape="144.46,564.24 144.46,578.64"/>
    </edge>
    <edge id=":B4_8" function="internal">
        <lane id=":B4_8_0" index="0" speed="8.00" length="5.93" shape="144.46,564.24 143.91,568.09 142.86,569.84"/>
    </edge>
    <edge id=":B4_13" function="internal">
        <lane id=":B4_13_0" index="0" speed="8.00" length="8.26" shape="142.86,569.84 142.26,570.84 139.51,572.49 135.66,573.04"/>
    </edge>
    <edge id=":B4_9" function="internal">
        <lane id=":B4_9_0" index="0" speed="6.51" length="9.03" shape="135.66,569.84 138.11,569.49 139.86,568.44 140.91,566.69 141.26,564.24"/>
    </edge>
    <edge id=":B4_10" function="internal">
        <lane id=":B4_10_0" index="0" speed="13.89" length="14.40" shape="135.66,569.84 150.06,569.84"/>
    </edge>
    <edge id=":B4_11" function="internal">
        <lane id=":B4_11_0" index="0" speed="8.00" length="14.19" shape="135.66,569.84 139.51,570.39 142.26,572.04 143.91,574.79 144.46,578.64"/>
    </edge>
    <edge id=":B5_0" function="internal">
        <lane id=":B5_0_0" index="0" speed="6.51" length="9.03" shape="141.26,721.50 140.91,719.05 139.86,717.30 138.11,716.25 135.66,715.90"/>
    </edge>
    <edge id=":B5_1" function="internal">
        <lane id=":B5_1_0" index="0" speed="13.89" length="14.40" shape="141.26,721.50 141.26,707.10"/>
    </edge>
    <edge id=":B5_2" function="internal">
        <lane id=":B5_2_0" index="0" speed="8.00" length="5.93" shape="141.26,721.50 141.81,717.65 142.86,715.90"/>
    </edge>
    <edge id=":B5_12" function="internal">
        <lane id=":B5_12_0" index="0" speed="8.00" length="8.26" shape="142.86,715.90 143.46,714.90 146.21,713.25 150.06,712.70"/>
    </edge>
    <edge id=":B5_3" function="internal">
        <lane id=":B5_3_0" index="0" speed="6.51" length="9.03" shape="150.06,715.90 147.61,716.25 145.86,717.30 144.81,719.05 144.46,721.50"/>
    </edge>
    <edge id=":B5_4" function="internal">
        <lane id=":B5_4_0" index="0" speed="13.89" length="14.40" shape="150.06,715.90 135.66,715.90"/>
    </edge>
    <edge id=":B5_5" function="internal">
        <lane id=":B5_5_0" index="0" speed="8.00" length="14.19" shape="150.06,715.90 146.21,715.35 143.46,713.70 141.81,710.95 141.26,707.10"/>
    </edge>
    <edge id=":B5_6" function="internal">
        <lane id=":B5_6_0" index="0" speed="6.51" length="9.03" shape="144.46,707.10 144.81,709.55 145.86,711.30 147.61,712.35 150.06,712.70"/>
    </edge>
    <edge id=":B5_7" function="internal">
        <lane id=":B5_7_0" index="0" speed="13.89" length="14.40" shape="144.46,707.10 144.46,721.50"/>
    </edge>
    <edge id=":B5_8" function="internal">
        <lane id=":B5_8_0" index="0" speed="8.00" length="5.93" shape="144.46,707.10 143.91,710.95 142.86,712.70"/>
    </edge>
    <edge id=":B5_13" function="internal">
        <lane id=":B5_13_0" index="0" speed="8.00" length="8.26" shape="142.86,712.70 142.26,713.70 139.51,715.35 135.66,715.90"/>
    </edge>
    <edge id=":B5_9" function="internal">
        <lane id=":B5_9_0" index="0" speed="6.51" length="9.03" shape="135.66,712.70 138.11,712.35 139.86,711.30 140.91,709.55 141.26,707.10"/>
    </edge>
    <edge id=":B5_10" function="internal">
        <lane id=":B5_10_0" index="0" speed="13.89" length="14.40" shape="135.66,712.70 150.06,712.70"/>
    </edge>
    <edge id=":B5_11" function="internal">
        <lane id=":B5_11_0" index="0" speed="8.00" length="14.19" shape="135.66,712.70 139.51,713.25 142.26,714.90 143.91,717.65 144.46,721.50"/>
    </edge>
    <edge id=":B6_0" function="internal">
        <lane id=":B6_0_0" index="0" speed="6.51" length="9.03" shape="141.26,864.36 140.91,861.91 139.86,860.16 138.11,859.11 135.66,858.76"/>
    </edge>
    <edge id=":B6_1" function="internal">
        <lane id=":B6_1_0" index="0" speed="13.89" length="14.40" shape="141.26,864.36 141.26,849.96"/>
    </edge>
    <edge id=":B6_2" function="internal">
        <lane id=":B6_2_0" index="0" speed="8.00" length="5.93" shape="141.26,864.36 141.81,860.51 142.86,858.76"/>
    </edge>
    <edge id=":B6_12" function="internal">
        <lane id=":B6_12_0" index="0" speed="8.00" length="8.26" shape="142.86,858.76 143.46,857.76 146.21,856.11 150.06,855.56"/>
    </edge>
    <edge id=":B6_3" function="internal">
        <lane id=":B6_3_0" index="0" speed="6.51" length="9.03" shape="150.06,858.76 147.61,859.11 145.86,860.16 144.81,861.91 144.46,864.36"/>
    </edge>
    <edge id=":B6_4" function="internal">
        <lane id=":B6_4_0" index="0" speed="13.89" length="14.40" shape="150.06,858.76 135.66,858.76"/>
    </edge>
    <edge id=":B6_5" function="internal">
        <lane id=":B6_5_0" index="0" speed="8.00" length="14.19" shape="150.06,858.76 146.21,858.21 143.46,856.56 141.81,853.81 141.26,849.96"/>
    </edge>
    <edge id=":B6_6" function="internal">
        <lane id=":B6_6_0" index="0" speed="6.51" length="9.03" shape="144.46,849.96 144.81,852.41 145.86,854.16 147.61,855.21 150.06,855.56"/>
    </edge>
    <edge id=":B6_7" function="internal">
        <lane id=":B6_7_0" index="0" speed="13.89" length="14.40" shape="144.46,849.96 144.46,864.36"/>
    </edge>
    <edge id=":B6_8" function="internal">
        <lane id=":B6_8_0" index="0" speed="8.00" length="5.93" shape="144.46,849.96 143.91,853.81 142.86,855.56"/>
    </edge>
    <edge id=":B6_13" function="internal">
        <lane id=":B6_13_0" index="0" speed="8.00" length="8.26" shape="142.86,855.56 142.26,856.56 139.51,858.21 135.66,858.76"/>
    </edge>
    <edge id=":B6_9" function="internal">
        <lane id=":B6_9_0" index="0" speed="6.51" length="9.03" shape="135.66,855.56 138.11,855.21 139.86,854.16 140.91,852.41 141.26,849.96"/>
    </edge>
    <edge id=":B6_10" function="internal">
        <lane id=":B6_10_0" index="0" speed="13.89" length="14.40" shape="135.66,855.56 150.06,855.56"/>
    </edge>
    <edge id=":B6_11" function="internal">
        <lane id=":B6_11_0" index="0" speed="8.00" length="14.19" shape="135.66,855.56 139.51,856.11 142.26,857.76 143.91,860.51 144.46,864.36"/>
    </edge>
    <edge id=":B7_0" function="internal">
        <lane id=":B7_0_0" index="0" speed="13.89" length="14.40" shape="150.06,1001.62 135.66,1001.62"/>
    </edge>
    <edge id=":B7_1" function="internal">
        <lane id=":B7_1_0" index="0" speed="8.00" length="5.93" shape="150.06,1001.62 146.21,1001.07 144.46,1000.02"/>
    </edge>
    <edge id=":B7_6" function="internal">
        <lane id=":B7_6_0" index="0" speed="8.00" length="8.26" shape="144.46,1000.02 143.46,999.42 141.81,996.67 141.26,992.82"/>
    </edge>
    <edge id=":B7_2" function="internal">
        <lane id=":B7_2_0" index="0" speed="6.51" length="9.03" shape="144.46,992.82 144.81,995.27 145.86,997.02 147.61,998.07 150.06,998.42"/>
    </edge>
    <edge id=":B7_3" function="internal">
        <lane id=":B7_3_0" index="0" speed="8.00" length="14.19" shape="144.46,992.82 143.91,996.67 142.26,999.42 139.51,1001.07 135.66,1001.62"/>
    </edge>
    <edge id=":B7_4" function="internal">
        <lane id=":B7_4_0" index="0" speed="6.51" length="9.03" shape="135.66,998.42 138.11,998.07 139.86,997.02 140.91,995.27 141.26,992.82"/>
    </edge>
    <edge id=":B7_5" function="internal">
        <lane id=":B7_5_0" index="0" speed="13.89" length="14.40" shape="135.66,998.42 150.06,998.42"/>
    </edge>
    <edge id=":C0_0" function="internal">
        <lane id=":C0_0_0" index="0" speed="6.51" length="9.03" shape="284.12,7.20 283.77,4.75 282.72,3.00 280.97,1.95 278.52,1.60"/>
    </edge>
    <edge id=":C0_1" function="internal">
        <lane id=":C0_1_0" index="0" speed="8.00" length="14.19" shape="284.12,7.20 284.67,3.35 286.32,0.60 289.07,-1.05 292.92,-1.60"/>
    </edge>
    <edge id=":C0_2" function="internal">
        <lane id=":C0_2_0" index="0" speed="6.51" length="9.03" shape="292.92,1.60 290.47,1.95 288.72,3.00 287.67,4.75 287.32,7.20"/>
    </edge>
    <edge id=":C0_3" function="internal">
        <lane id=":C0_3_0" index="0" speed="13.89" length="14.40" shape="292.92,1.60 278.52,1.60"/>
    </edge>
    <edge id=":C0_4" function="internal">
        <lane id=":C0_4_0" index="0" speed="13.89" length="14.40" shape="278.52,-1.60 292.92,-1.60"/>
    </edge>
    <edge id=":C0_5" function="internal">
        <lane id=":C0_5_0" index="0" speed="8.00" length="5.93" shape="278.52,-1.60 282.37,-1.05 284.12,0.00"/>
    </edge>
    <edge id=":C0_6" function="internal">
        <lane id=":C0_6_0" index="0" speed="8.00" length="8.26" shape="284.12,0.00 285.12,0.60 286.77,3.35 287.32,7.20"/>
    </edge>
    <edge id=":C1_0" function="internal">
        <lane id=":C1_0_0" index="0" speed="6.51" length="9.03" shape="284.12,150.06 283.77,147.61 282.72,145.86 280.97,144.81 278.52,144.46"/>
    </edge>
    <edge id=":C1_1" function="internal">
        <lane id=":C1_1_0" index="0" speed="13.89" length="14.40" shape="284.12,150.06 284.12,135.66"/>
    </edge>
    <edge id=":C1_2" function="internal">
        <lane id=":C1_2_0" index="0" speed="8.00" length="5.93" shape="284.12,150.06 284.67,146.21 285.72,144.46"/>
    </edge>
    <edge id=":C1_12" function="internal">
        <lane id=":C1_12_0" index="0" speed="8.00" length="8.26" shape="285.72,144.46 286.32,143.46 289.07,141.81 292.92,141.26"/>
    </edge>
    <edge id=":C1_3" function="internal">
        <lane id=":C1_3_0" index="0" speed="6.51" length="9.03" shape="292.92,144.46 290.47,144.81 288.72,145.86 287.67,147.61 287.32,150.06"/>
    </edge>
    <edge id=":C1_4" function="internal">
        <lane id=":C1_4_0" index="0" speed="13.89" length="14.40" shape="292.92,144.46 278.52,144.46"/>
    </edge>
    <edge id=":C1_5" function="internal">
        <lane id=":C1_5_0" index="0" speed="8.00" length="14.19" shape="292.92,144.46 289.07,143.91 286.32,142.26 284.67,139.51 284.12,135.66"/>
    </edge>
    <edge id=":C1_6" function="internal">
        <lane id=":C1_6_0" index="0" speed="6.51" length="9.03" shape="287.32,135.66 287.67,138.11 288.72,139.86 290.47,140.91 292.92,141.26"/>
    </edge>
    <edge id=":C1_7" function="internal">
        <lane id=":C1_7_0" index="0" speed="13.89" length="14.40" shape="287.32,135.66 287.32,150.06"/>
    </edge>
    <edge id=":C1_8" function="internal">
        <lane id=":C1_8_0" index="0" speed="8.00" length="5.93" shape="287.32,135.66 286.77,139.51 285.72,141.26"/>
    </edge>
    <edge id=":C1_13" function="internal">
        <lane id=":C1_13_0" index="0" speed="8.00" length="8.26" shape="285.72,141.26 285.12,142.26 282.37,143.91 278.52,144.46"/>
    </edge>
    <edge id=":C1_9" function="internal">